12
Coordinates from ORCA-job IsopropylBromide_SN2
  C   -0.09245477112028      0.03980606477185      0.39948685390131
  C   0.10404199988645     -1.32026102109823     -0.19555788622720
  C   0.08321848899564      1.25318810770294     -0.46015649968900
  H   -0.43409381324045      0.14178370416880      1.41823358347292
  H   1.07828468616212      1.24605855098970     -0.93034882479132
  H   -0.03825777163945      2.18164510511513      0.11369045052880
  H   -0.67071346406082      1.23065842980560     -1.26164869625040
  H   1.09864726992519     -1.39111635435706     -0.66158555509784
  H   -0.65005565673137     -1.47622720995434     -0.98180274086036
  H   0.00076262033140     -2.11411936001958      0.55623400741191
  Cl  -2.65580662149838      0.01784238225068      0.32024875422233
  Br  2.17642703298995      0.19074160062450      1.68320655337884
