15
Coordinates from ORCA-job TertButylBromide_SN2
  C   -0.00308732402274      0.00856361627184      0.00116564642127
  Br  3.07878589420018     -0.15506956598427      0.37502592856679
  C   -0.14472886373406     -0.33012431255909      1.43797154866643
  C   -0.02772058461586     -1.07365471191950     -1.01163729913084
  C   0.15988487545530      1.41783295296716     -0.42929255389465
  H   0.65342450513116      2.02797800223623      0.33663457775514
  H   -0.87225003064267      1.78567235751207     -0.56931298359928
  H   0.68244148306473      1.49017898637462     -1.39263792302634
  H   0.31777727059081     -1.30200774821402      1.65942697719339
  H   -1.23050749211784     -0.43326039630483      1.60651973730624
  H   0.25548510042260      0.45156779633493      2.09450467649169
  H   1.02759248881535     -1.37675921780650     -1.13716216679801
  H   -0.40480996914211     -0.71523816187582     -1.97754734977554
  H   -0.59881667241430     -1.94325680062734     -0.66332032209018
  Cl  -2.89347068099057      0.14757720359454     -0.33033849408610
