8
Coordinates from ORCA-job Optim_Bromoethane
  C   -7.50013449106320      1.13681777039386      3.41499423335656
  Br  -5.52903577644227      1.18346566908104      3.58365199906738
  C   -7.94686657484685      0.75037304804802      2.01517990864254
  H   -7.83928323062960      2.14981510924736      3.70212756952518
  H   -7.83928333241598      0.41462706799057      4.18119356029296
  H   -7.58128835654011      1.47175061223475      1.25770114026696
  H   -9.05766641029004      0.73900606179469      1.97377202508218
  H   -7.58136182777187     -0.25747533879029      1.73509956376620
