14
Coordinates from ORCA-job Optim_TertButylBromide
  C   -3.95408414354444      0.96040204514285      0.00005860300339
  Br  -1.91908986514941      0.96040647643754     -0.00007519816367
  C   -4.39324945653674     -0.30678955165715     -0.73573025771203
  C   -4.39324834941389      2.23112555277350     -0.72960830487136
  C   -4.39315749452849      0.95686853076649      1.46534607783784
  H   -4.02600649737509     -0.31671695673844     -1.78059640580433
  H   -5.50463324590833     -0.34907724271701     -0.76044781249989
  H   -4.02626782201988     -1.21927751584364     -0.22640731335282
  H   -4.02609564383713      0.05697461366740      1.99656445207299
  H   -5.50454802109119      0.95675139585427      1.51440593493858
  H   -4.02609904837498      1.85418914239650      2.00090282576462
  H   -4.02600216724091      2.24610668001037     -1.77441289470037
  H   -4.02627617738912      3.14114592550492     -0.21588370845372
  H   -5.50463206759031      2.27352090440238     -0.75412599805923
