9
Coordinates from ORCA-job Bromoethane_Reactants_Optim
  C   -1.79017916360658     -0.86020179585761      0.55938252161338
  C   -2.67887709500521     -2.05683996412629      0.78217057091315
  H   -2.33823559462927      0.07546824031144      0.43761484366408
  H   -2.09570594939827     -2.97768673053961      0.92850681999136
  H   -3.27953261369967     -2.13873925606688     -0.14158811728974
  H   -3.34327738043813     -1.91781024286069      1.64742518230154
  Cl  -3.19457101324627     -0.62329917776248     -2.27848282983416
  Br  -0.58192117797732     -0.54080483526067      2.18812230229122
  H   -1.09863001199929     -0.97833623783720     -0.27630129365083
