15
Coordinates from ORCA-job TertButylBromide_SN2
  C   -0.00204643083975      0.00848589757706      0.00119663330380
  Br  3.06626196700684     -0.15119117224959      0.37535300260795
  C   -0.14505967990262     -0.33030190028714      1.43861163534584
  C   -0.02694513809489     -1.07465657286531     -1.01198036091862
  C   0.16021605908282      1.41876764921032     -0.42927277813914
  H   0.65897507580523      2.02668899118881      0.33505360203937
  H   -0.87077531577437      1.79030620263535     -0.56555191414186
  H   0.68083113811104      1.49064600761580     -1.39369740524542
  H   0.32032876140989     -1.30064077393322      1.66062760095453
  H   -1.23033449206143     -0.43488889141525      1.60830424606715
  H   0.25458902570132      0.45204931321430      2.09478545506642
  H   1.02645588579097     -1.38277861226480     -1.13812531753425
  H   -0.40359617151573     -0.71507653433310     -1.97765540850928
  H   -0.60295445477558     -1.94125829508276     -0.66427830639259
  Cl  -2.88594622994373      0.14384869098952     -0.33337068450391
