15
Coordinates from ORCA-job TertButylBromide_Reactants_Optim
  C   -3.14915167208843      1.78371452812761     -0.00110465611066
  Br  -1.03529634174058      1.77120448120249      0.09603955991412
  C   -3.65489908403102      1.44743034296656      1.38633358239532
  C   -3.54672921897705      0.73518985702998     -1.01927925475588
  C   -3.55904446257442      3.17684364799675     -0.43212348883298
  H   -3.23432115874966      3.93833169144511      0.29041539107861
  H   -4.66955543252149      3.15950590012567     -0.47516221134624
  H   -3.15981898851159      3.42908131005909     -1.42425353512483
  H   -3.32481218763722      0.45055881768335      1.71008989280375
  H   -4.76408971042482      1.46014245533889      1.30810630859389
  H   -3.33320161870592      2.19108663689214      2.12860452246609
  H   -3.21235790287806     -0.26847048763975     -0.72220848075490
  H   -3.14889701608016      0.96586714108405     -2.01726890979253
  H   -4.65776985310467      0.75890521161238     -1.05058809202220
  Cl  -6.86779535197487      1.78892846607565     -0.16171062851156
