15
Coordinates from ORCA-job TertButylBromide_SN2
  C   0.02319352393165      0.00415477749584     -0.00142155244903
  Br  2.79467571507424     -0.09113793155928      0.36725964462039
  C   -0.16396032396006     -0.33743157675221      1.45161423270172
  C   0.00734319291126     -1.10752652402458     -1.01964308015699
  C   0.14659690173881      1.44438273708697     -0.42419446646901
  H   0.79148695456174      1.99365014280715      0.27330310794600
  H   -0.86228612985005      1.88205367219067     -0.43182155343198
  H   0.57766003691426      1.51960367594987     -1.43241884425052
  H   0.36651068318526     -1.26894871347282      1.69369819195612
  H   -1.24056822916418     -0.47218107369074      1.63301848555694
  H   0.22647111699458      0.45981047041751      2.09813695005573
  H   1.02254015709949     -1.52004718305122     -1.11343741607912
  H   -0.32737368326508     -0.72768429083555     -1.99353916629969
  H   -0.69031735164621     -1.89366032126358     -0.70404395393458
  Cl  -2.67197256452571      0.11496213870198     -0.39651057976597
